<?xml version="1.0" encoding="UTF-8"?>

<!-- generated on Fri Nov 16 12:09:31 2018 by SUMO netconvert Version 0.25.0
<?xml version="1.0" encoding="UTF-8"?>

<configuration xmlns:xsi="http://www.w3.org/2001/XMLSchema-instance" xsi:noNamespaceSchemaLocation="http://sumo.dlr.de/xsd/netconvertConfiguration.xsd">

    <input>
        <node-files value="circle.nod.xml"/>
        <edge-files value="circle.edg.xml"/>
    </input>

    <output>
        <output-file value="circle.net.xml"/>
    </output>

</configuration>
-->

<net version="0.25" xmlns:xsi="http://www.w3.org/2001/XMLSchema-instance" xsi:noNamespaceSchemaLocation="http://sumo.dlr.de/xsd/net_file.xsd">

    <location netOffset="100.00,100.00" convBoundary="0.00,0.00,201.00,200.00" origBoundary="-100.00,-100.00,101.00,100.00" projParameter="!"/>

    <edge id=":2_0" function="internal">
        <lane id=":2_0_0" index="0" speed="13.90" length="2.58" shape="1.65,196.75 1.75,197.45 2.05,197.95 2.55,198.25 3.25,198.35"/>
    </edge>
    <edge id=":3_0" function="internal">
        <lane id=":3_0_0" index="0" speed="13.90" length="2.58" shape="196.75,198.35 197.45,198.25 197.95,197.95 198.25,197.45 198.35,196.75"/>
    </edge>
    <edge id=":4_0" function="internal">
        <lane id=":4_0_0" index="0" speed="13.90" length="2.58" shape="198.35,-0.05 198.45,-0.75 198.75,-1.25 199.25,-1.55 199.95,-1.65"/>
    </edge>

    <edge id="1to2" from="1" to="2" priority="-1">
        <lane id="1to2_0" index="0" speed="13.90" length="196.75" shape="1.65,0.00 1.65,196.75"/>
    </edge>
    <edge id="2to3" from="2" to="3" priority="-1">
        <lane id="2to3_0" index="0" speed="13.90" length="193.50" shape="3.25,198.35 196.75,198.35"/>
    </edge>
    <edge id="3to4" from="3" to="4" priority="-1">
        <lane id="3to4_0" index="0" speed="13.90" length="196.80" shape="198.35,196.75 198.35,-0.05"/>
    </edge>
    <edge id="out" from="4" to="5" priority="-1">
        <lane id="out_0" index="0" speed="13.90" length="1.05" shape="199.95,-1.65 201.00,-1.65"/>
    </edge>

    <junction id="1" type="unregulated" x="0.00" y="0.00" incLanes="" intLanes="" shape="0.05,0.00 3.25,0.00"/>
    <junction id="2" type="priority" x="0.00" y="200.00" incLanes="1to2_0" intLanes=":2_0_0" shape="3.25,199.95 3.25,196.75 0.05,196.75">
        <request index="0" response="0" foes="0" cont="0"/>
    </junction>
    <junction id="3" type="priority" x="200.00" y="200.00" incLanes="2to3_0" intLanes=":3_0_0" shape="199.95,196.75 196.75,196.75 196.75,199.95">
        <request index="0" response="0" foes="0" cont="0"/>
    </junction>
    <junction id="4" type="priority" x="200.00" y="0.00" incLanes="3to4_0" intLanes=":4_0_0" shape="196.75,-0.05 199.95,-0.05 199.95,-3.25">
        <request index="0" response="0" foes="0" cont="0"/>
    </junction>
    <junction id="5" type="unregulated" x="201.00" y="0.00" incLanes="out_0" intLanes="" shape="201.00,-3.25 201.00,-0.05"/>

    <connection from="1to2" to="2to3" fromLane="0" toLane="0" via=":2_0_0" dir="r" state="M"/>
    <connection from="2to3" to="3to4" fromLane="0" toLane="0" via=":3_0_0" dir="r" state="M"/>
    <connection from="3to4" to="out" fromLane="0" toLane="0" via=":4_0_0" dir="l" state="M"/>

    <connection from=":2_0" to="2to3" fromLane="0" toLane="0" dir="s" state="M"/>
    <connection from=":3_0" to="3to4" fromLane="0" toLane="0" dir="s" state="M"/>
    <connection from=":4_0" to="out" fromLane="0" toLane="0" dir="s" state="M"/>

</net>
