<?xml version="1.0" encoding="UTF-8"?>

<!-- generated on Thu Nov 15 10:01:35 2018 by SUMO netconvert Version 0.32.0
<?xml version="1.0" encoding="UTF-8"?>

<configuration xmlns:xsi="http://www.w3.org/2001/XMLSchema-instance" xsi:noNamespaceSchemaLocation="http://sumo.dlr.de/xsd/netconvertConfiguration.xsd">

    <input>
        <node-files value="circle.nod.xml"/>
        <edge-files value="circle.edg.xml"/>
    </input>

    <output>
        <output-file value="circle.net.xml"/>
    </output>

</configuration>
-->

<net version="0.27" xmlns:xsi="http://www.w3.org/2001/XMLSchema-instance" xsi:noNamespaceSchemaLocation="http://sumo.dlr.de/xsd/net_file.xsd">

    <location netOffset="0.00,0.00" convBoundary="0.00,0.00,100.00,100.00" origBoundary="0.00,0.00,100.00,100.00" projParameter="!"/>

    <edge id=":1_0" function="internal">
        <lane id=":1_0_0" index="0" speed="13.90" length="2.58" shape="-1.65,-0.05 -1.55,-0.75 -1.25,-1.25 -0.75,-1.55 -0.05,-1.65"/>
    </edge>
    <edge id=":2_0" function="internal">
        <lane id=":2_0_0" index="0" speed="13.90" length="2.58" shape="100.05,-1.65 100.75,-1.55 101.25,-1.25 101.55,-0.75 101.65,-0.05"/>
    </edge>
    <edge id=":3_0" function="internal">
        <lane id=":3_0_0" index="0" speed="13.90" length="2.58" shape="101.65,100.05 101.55,100.75 101.25,101.25 100.75,101.55 100.05,101.65"/>
    </edge>
    <edge id=":4_0" function="internal">
        <lane id=":4_0_0" index="0" speed="13.90" length="2.58" shape="-0.05,101.65 -0.75,101.55 -1.25,101.25 -1.55,100.75 -1.65,100.05"/>
    </edge>

    <edge id="1to2" from="1" to="2" priority="-1">
        <lane id="1to2_0" index="0" speed="13.90" length="100.10" shape="-0.05,-1.65 100.05,-1.65"/>
    </edge>
    <edge id="2to3" from="2" to="3" priority="-1">
        <lane id="2to3_0" index="0" speed="13.90" length="100.10" shape="101.65,-0.05 101.65,100.05"/>
    </edge>
    <edge id="3to4" from="3" to="4" priority="-1">
        <lane id="3to4_0" index="0" speed="13.90" length="100.10" shape="100.05,101.65 -0.05,101.65"/>
    </edge>
    <edge id="4to1" from="4" to="1" priority="-1">
        <lane id="4to1_0" index="0" speed="13.90" length="100.10" shape="-1.65,100.05 -1.65,-0.05"/>
    </edge>

    <junction id="1" type="priority" x="0.00" y="0.00" incLanes="4to1_0" intLanes=":1_0_0" shape="-3.25,-0.05 -0.05,-0.05 -0.05,-3.25">
        <request index="0" response="0" foes="0" cont="0"/>
    </junction>
    <junction id="2" type="priority" x="100.00" y="0.00" incLanes="1to2_0" intLanes=":2_0_0" shape="100.05,-0.05 103.25,-0.05 100.05,-3.25">
        <request index="0" response="0" foes="0" cont="0"/>
    </junction>
    <junction id="3" type="priority" x="100.00" y="100.00" incLanes="2to3_0" intLanes=":3_0_0" shape="103.25,100.05 100.05,100.05 100.05,103.25">
        <request index="0" response="0" foes="0" cont="0"/>
    </junction>
    <junction id="4" type="priority" x="0.00" y="100.00" incLanes="3to4_0" intLanes=":4_0_0" shape="-0.05,103.25 -0.05,100.05 -3.25,100.05">
        <request index="0" response="0" foes="0" cont="0"/>
    </junction>

    <connection from="1to2" to="2to3" fromLane="0" toLane="0" via=":2_0_0" dir="l" state="M"/>
    <connection from="2to3" to="3to4" fromLane="0" toLane="0" via=":3_0_0" dir="l" state="M"/>
    <connection from="3to4" to="4to1" fromLane="0" toLane="0" via=":4_0_0" dir="l" state="M"/>
    <connection from="4to1" to="1to2" fromLane="0" toLane="0" via=":1_0_0" dir="l" state="M"/>

    <connection from=":1_0" to="1to2" fromLane="0" toLane="0" dir="l" state="M"/>
    <connection from=":2_0" to="2to3" fromLane="0" toLane="0" dir="l" state="M"/>
    <connection from=":3_0" to="3to4" fromLane="0" toLane="0" dir="l" state="M"/>
    <connection from=":4_0" to="4to1" fromLane="0" toLane="0" dir="l" state="M"/>

</net>
