<configuration>
    <input>
       <net-file value="loop50m.net.xml"/>
       <route-files value="loop50m.rou.xml"/>
      <additional-files value="loop50m.add.xml"/>
    </input>
    <time>
      <begin value="0"/>
      <end value="10000"/>
      <step-length value="0.1"/>
  </time>
</configuration>
